<?xml version='1.0' encoding='utf-8'?>
<routes><route id="1" name="b2Tob1" start="b2" end="b1"><alternative id="1" platform="False"><node id="1-10" /><node id="1-9" /><node id="1-7" /><node id="1-6" /><node id="1-5" /><node id="1-4" /><node id="1-2" /><node id="1-1" /></alternative><alternative id="2" platform="True"><node id="1-10" /><node id="1-9" /><node id="1-8" /><node id="2-6" /><node id="2-4" /><node id="2-3" /><node id="2-2" /><node id="1-3" /><node id="1-2" /><node id="1-1" /></alternative></route><route id="2" name="b3Tob4" start="b3" end="b4"><alternative id="1" platform="False"><node id="3-1" /><node id="3-2" /><node id="3-4" /><node id="3-5" /><node id="3-6" /><node id="3-7" /><node id="3-9" /><node id="3-10" /></alternative><alternative id="2" platform="True"><node id="3-1" /><node id="3-2" /><node id="3-3" /><node id="2-1" /><node id="2-3" /><node id="2-4" /><node id="2-5" /><node id="3-8" /><node id="3-9" /><node id="3-10" /></alternative></route></routes>