<?xml version="1.0" encoding="utf-8"?>
<routes>
    <route id="1" name="VS02EToSS02" start="VS02E" end="SS02">
        <alternative id="1" platform="True">
            <node id="3-23"/>
            <node id="3-22"/>
            <node id="3-21"/>
            <node id="5-20"/>
            <node id="5-19"/>
            <node id="5-14"/>
            <node id="5-12"/>
            <node id="5-9"/>
            <node id="5-7"/>
            <node id="5-6"/>
            <node id="5-4"/>
            <node id="5-1"/>
        </alternative>
        <alternative id="2" platform="True">
            <node id="3-23"/>
            <node id="3-22"/>
            <node id="3-21"/>
            <node id="5-20"/>
            <node id="5-19"/>
            <node id="5-14"/>
            <node id="5-12"/>
            <node id="5-9"/>
            <node id="5-8"/>
            <node id="4-7"/>
            <node id="4-5"/>
            <node id="4-4"/>
            <node id="4-3"/>
            <node id="5-5"/>
            <node id="5-4"/>
            <node id="5-1"/>
        </alternative>
        <alternative id="3" platform="True">
            <node id="3-23"/>
            <node id="3-22"/>
            <node id="3-20"/>
            <node id="3-18"/>
            <node id="3-17"/>
            <node id="3-16"/>
            <node id="3-14"/>
            <node id="3-13"/>
            <node id="3-12"/>
            <node id="4-10"/>
            <node id="4-8"/>
            <node id="4-6"/>
            <node id="4-5"/>
            <node id="4-4"/>
            <node id="4-3"/>
            <node id="5-5"/>
            <node id="5-4"/>
            <node id="5-1"/>
        </alternative>
        <alternative id="4" platform="True">
            <node id="3-23"/>
            <node id="3-22"/>
            <node id="3-21"/>
            <node id="5-20"/>
            <node id="5-19"/>
            <node id="5-14"/>
            <node id="5-13"/>
            <node id="4-16"/>
            <node id="4-14"/>
            <node id="4-13"/>
            <node id="4-11"/>
            <node id="4-9"/>
            <node id="4-8"/>
            <node id="4-6"/>
            <node id="4-5"/>
            <node id="4-4"/>
            <node id="4-3"/>
            <node id="5-5"/>
            <node id="5-4"/>
            <node id="5-1"/>
        </alternative>
        <alternative id="5" platform="True">
            <node id="3-23"/>
            <node id="3-22"/>
            <node id="3-20"/>
            <node id="3-18"/>
            <node id="3-17"/>
            <node id="3-16"/>
            <node id="3-15"/>
            <node id="4-18"/>
            <node id="4-17"/>
            <node id="4-15"/>
            <node id="4-14"/>
            <node id="4-13"/>
            <node id="4-11"/>
            <node id="4-9"/>
            <node id="4-8"/>
            <node id="4-6"/>
            <node id="4-5"/>
            <node id="4-4"/>
            <node id="4-3"/>
            <node id="5-5"/>
            <node id="5-4"/>
            <node id="5-1"/>
        </alternative>
    </route>
    <route id="2" name="SS01ToVS01E" start="SS01" end="VS01E">
        <alternative id="1" platform="True">
            <node id="4-1"/>
            <node id="4-2"/>
            <node id="4-4"/>
            <node id="4-5"/>
            <node id="4-6"/>
            <node id="4-8"/>
            <node id="4-9"/>
            <node id="4-11"/>
            <node id="4-13"/>
            <node id="4-14"/>
            <node id="4-15"/>
            <node id="4-17"/>
            <node id="4-18"/>
            <node id="3-15"/>
            <node id="3-16"/>
            <node id="3-17"/>
            <node id="3-19"/>
            <node id="2-15"/>
            <node id="2-16"/>
            <node id="2-17"/>
        </alternative>
        <alternative id="2" platform="True">
            <node id="4-1"/>
            <node id="4-2"/>
            <node id="4-4"/>
            <node id="4-5"/>
            <node id="4-6"/>
            <node id="4-8"/>
            <node id="4-10"/>
            <node id="3-12"/>
            <node id="3-13"/>
            <node id="3-14"/>
            <node id="3-16"/>
            <node id="3-17"/>
            <node id="3-19"/>
            <node id="2-15"/>
            <node id="2-16"/>
            <node id="2-17"/>
        </alternative>
    </route>
    <route id="3" name="VS02EToVS02W" start="VS02E" end="VS02W">
        <alternative id="1" platform="True">
            <node id="3-23"/>
            <node id="3-22"/>
            <node id="3-20"/>
            <node id="3-18"/>
            <node id="3-17"/>
            <node id="3-16"/>
            <node id="3-14"/>
            <node id="3-13"/>
            <node id="3-11"/>
            <node id="3-9"/>
            <node id="3-8"/>
            <node id="3-6"/>
            <node id="3-5"/>
            <node id="3-4"/>
            <node id="3-2"/>
            <node id="3-1"/>
        </alternative>
        <alternative id="2" platform="True">
            <node id="3-23"/>
            <node id="3-22"/>
            <node id="3-21"/>
            <node id="5-20"/>
            <node id="5-19"/>
            <node id="5-14"/>
            <node id="5-13"/>
            <node id="4-16"/>
            <node id="4-14"/>
            <node id="4-13"/>
            <node id="4-12"/>
            <node id="3-10"/>
            <node id="3-8"/>
            <node id="3-6"/>
            <node id="3-5"/>
            <node id="3-4"/>
            <node id="3-2"/>
            <node id="3-1"/>
        </alternative>
        <alternative id="3" platform="True">
            <node id="3-23"/>
            <node id="3-22"/>
            <node id="3-20"/>
            <node id="3-18"/>
            <node id="3-17"/>
            <node id="3-16"/>
            <node id="3-15"/>
            <node id="4-18"/>
            <node id="4-17"/>
            <node id="4-15"/>
            <node id="4-14"/>
            <node id="4-13"/>
            <node id="4-12"/>
            <node id="3-10"/>
            <node id="3-8"/>
            <node id="3-6"/>
            <node id="3-5"/>
            <node id="3-4"/>
            <node id="3-2"/>
            <node id="3-1"/>
        </alternative>
    </route>
    <route id="4" name="VS01WToVS01E" start="VS01W" end="VS01E">
        <alternative id="1" platform="False">
            <node id="2-1"/>
            <node id="2-2"/>
            <node id="2-3"/>
            <node id="2-5"/>
            <node id="2-7"/>
            <node id="2-8"/>
            <node id="2-9"/>
            <node id="2-11"/>
            <node id="2-13"/>
            <node id="2-14"/>
            <node id="2-16"/>
            <node id="2-17"/>
        </alternative>
        <alternative id="2" platform="False">
            <node id="2-1"/>
            <node id="2-2"/>
            <node id="2-4"/>
            <node id="3-3"/>
            <node id="3-4"/>
            <node id="3-5"/>
            <node id="3-7"/>
            <node id="2-6"/>
            <node id="2-7"/>
            <node id="2-8"/>
            <node id="2-9"/>
            <node id="2-11"/>
            <node id="2-13"/>
            <node id="2-14"/>
            <node id="2-16"/>
            <node id="2-17"/>
        </alternative>
        <alternative id="3" platform="True">
            <node id="2-1"/>
            <node id="2-2"/>
            <node id="2-3"/>
            <node id="2-5"/>
            <node id="2-7"/>
            <node id="2-8"/>
            <node id="2-10"/>
            <node id="1-1"/>
            <node id="1-2"/>
            <node id="1-3"/>
            <node id="1-4"/>
            <node id="2-12"/>
            <node id="2-13"/>
            <node id="2-14"/>
            <node id="2-16"/>
            <node id="2-17"/>
        </alternative>
        <alternative id="4" platform="True">
            <node id="2-1"/>
            <node id="2-2"/>
            <node id="2-4"/>
            <node id="3-3"/>
            <node id="3-4"/>
            <node id="3-5"/>
            <node id="3-7"/>
            <node id="2-6"/>
            <node id="2-7"/>
            <node id="2-8"/>
            <node id="2-10"/>
            <node id="1-1"/>
            <node id="1-2"/>
            <node id="1-3"/>
            <node id="1-4"/>
            <node id="2-12"/>
            <node id="2-13"/>
            <node id="2-14"/>
            <node id="2-16"/>
            <node id="2-17"/>
        </alternative>
        <alternative id="5" platform="True">
            <node id="2-1"/>
            <node id="2-2"/>
            <node id="2-4"/>
            <node id="3-3"/>
            <node id="3-4"/>
            <node id="3-5"/>
            <node id="3-6"/>
            <node id="3-8"/>
            <node id="3-9"/>
            <node id="3-11"/>
            <node id="3-13"/>
            <node id="3-14"/>
            <node id="3-16"/>
            <node id="3-17"/>
            <node id="3-19"/>
            <node id="2-15"/>
            <node id="2-16"/>
            <node id="2-17"/>
        </alternative>
        <alternative id="6" platform="True">
            <node id="2-1"/>
            <node id="2-2"/>
            <node id="2-4"/>
            <node id="3-3"/>
            <node id="3-4"/>
            <node id="3-5"/>
            <node id="3-6"/>
            <node id="3-8"/>
            <node id="3-10"/>
            <node id="4-12"/>
            <node id="4-13"/>
            <node id="4-14"/>
            <node id="4-15"/>
            <node id="4-17"/>
            <node id="4-18"/>
            <node id="3-15"/>
            <node id="3-16"/>
            <node id="3-17"/>
            <node id="3-19"/>
            <node id="2-15"/>
            <node id="2-16"/>
            <node id="2-17"/>
        </alternative>
    </route>
</routes>